9
Dihedral (-165,) Energy -155.056454988
C        0.9705149886   -0.1758792341    0.0249569405
C        1.9497475020    0.8837197748   -0.4286099490
O        1.5457266363    1.3409772430   -1.7106812521
H        2.2670722047    1.8286850469   -2.1088010800
H        1.2358846056   -0.5439204418    1.0182412655
H       -0.0407424642    0.2321367273    0.0649049234
H        0.9714341611   -1.0160965086   -0.6711634460
H        2.9618439449    0.4609562688   -0.4675487936
H        1.9665126434    1.7134081160    0.2906996164
9
Dihedral (-150,) Energy -155.055837920
C        0.9573168867   -0.1512110093    0.0339313980
C        1.9449798113    0.9020007612   -0.4187901046
O        1.5533083547    1.3731974524   -1.7012263257
H        2.3325494721    1.6440736105   -2.1856185221
H        1.2106712832   -0.5124441550    1.0331034159
H       -0.0526279691    0.2613237606    0.0617995880
H        0.9597550322   -0.9966510587   -0.6558649411
H        2.9531619718    0.4717105000   -0.4544260268
H        1.9688795218    1.7319804435    0.2990882094
9
Dihedral (-135,) Energy -155.055204986
C        0.9583133299   -0.1366234639    0.0384634475
C        1.9434817558    0.9224714356   -0.4105515082
O        1.5584845830    1.4215344119   -1.6859430179
H        2.3304248507    1.4776747759   -2.2468217974
H        1.2134338019   -0.5028959739    1.0358085368
H       -0.0518257116    0.2756453168    0.0707449983
H        0.9573548948   -0.9795325935   -0.6544706698
H        2.9539636678    0.4996430471   -0.4484510436
H        1.9643659920    1.7460629204    0.3132184137
9
Dihedral (-120,) Energy -155.054884101
C        0.9635463020   -0.1257689886    0.0362486173
C        1.9481855693    0.9415222234   -0.3994929646
O        1.5759586889    1.4758581821   -1.6647100843
H        2.2830587411    1.3289057421   -2.2904819780
H        1.2162833445   -0.5030590034    1.0303063480
H       -0.0470162440    0.2846129182    0.0692023292
H        0.9654114934   -0.9625965742   -0.6648668054
H        2.9614496064    0.5266480071   -0.4348455506
H        1.9611206007    1.7578587590    0.3306370990
9
Dihedral (-105,) Energy -155.055127384
C        0.9695596873   -0.0988919711    0.0490895112
C        1.9666747015    0.9519474866   -0.4032704486
O        1.6033180845    1.5067923110   -1.6613734469
H        2.1767847889    1.1512235810   -2.3386207272
H        1.2275669455   -0.4749935076    1.0423359584
H       -0.0342386226    0.3266807928    0.0894322569
H        0.9504941053   -0.9426129230   -0.6444970881
H        2.9772998587    0.5302316103   -0.4394442627
H        1.9905422323    1.7735957985    0.3183429292
9
Dihedral (-90,) Energy -155.055785067
C        0.9780919511   -0.0970085029    0.0274171187
C        1.9819354955    0.9649586196   -0.3859432426
O        1.6511722489    1.5669560549   -1.6292563485
H        2.0660348354    1.0690452291   -2.3335150321
H        1.2273142523   -0.5026913039    1.0112170269
H       -0.0258767230    0.3278518358    0.0710565752
H        0.9641816326   -0.9232804361   -0.6878165471
H        2.9952887406    0.5469038544   -0.4121971562
H        1.9898374281    1.7712136588    0.3510136317
9
Dihedral (-75,) Energy -155.056468528
C        0.9926678994   -0.0965243456    0.0050235399
C        2.0077826486    0.9687517427   -0.3705492454
O        1.6913477268    1.6271515252   -1.5866350736
H        1.8935978994    1.0388557216   -2.3155460059
H        1.2314557289   -0.5329673452    0.9779290496
H       -0.0094324789    0.3324349353    0.0519624413
H        0.9798483553   -0.9050811382   -0.7312033351
H        3.0171712690    0.5400689836   -0.4094451773
H        2.0235441314    1.7512595537    0.3904417967
9
Dihedral (-60,) Energy -155.056770659
C        1.0107149195   -0.0976723592   -0.0178701421
C        2.0258734177    0.9795377998   -0.3555902121
O        1.7374553979    1.6519397656   -1.5699245926
H        1.7366593087    1.0080562262   -2.2805154487
H        1.2364415787   -0.5537593997    0.9488734717
H        0.0042624932    0.3223359330    0.0222828302
H        1.0162856557   -0.8930144402   -0.7690704420
H        3.0371533407    0.5526054941   -0.3795010100
H        2.0231413515    1.7539181261    0.4132903457
9
Dihedral (-45,) Energy -155.056466790
C        1.0378066946   -0.1048775754   -0.0364031121
C        2.0399386697    0.9916148273   -0.3469324930
O        1.7667919291    1.6627948909   -1.5657863551
H        1.5611421430    1.0048175470   -2.2323179838
H        1.2582961682   -0.5714401577    0.9261519263
H        0.0229441702    0.2959425506   -0.0027260472
H        1.0688223304   -0.8905547664   -0.7975743524
H        3.0559712832    0.5749731406   -0.3595103919
H        2.0162762000    1.7606738970    0.4270761280
9
Dihedral (-30,) Energy -155.055741358
C        1.0637230900   -0.1086514579   -0.0421238718
C        2.0631567302    0.9886643737   -0.3555128899
O        1.7860968698    1.6604691178   -1.5744634880
H        1.3567871097    1.0452074668   -2.1706712012
H        1.2946600085   -0.5829552160    0.9138036406
H        0.0483517571    0.2903808174    0.0086186095
H        1.0877291809   -0.8882360024   -0.8098621413
H        3.0763685725    0.5673238478   -0.3834734756
H        2.0511196440    1.7517396685    0.4256600313
9
Dihedral (-15,) Energy -155.054942498
C        1.0873254524   -0.1171062187   -0.0470940449
C        2.0766019474    0.9874681903   -0.3653835123
O        1.8119582351    1.6335824073   -1.6024344066
H        1.2015066016    1.0957434127   -2.1072770105
H        1.3185666739   -0.5795225403    0.9143275476
H        0.0675836478    0.2727679263    0.0006457890
H        1.1210915583   -0.9021175708   -0.8083581976
H        3.0934439469    0.5778853381   -0.3849937619
H        2.0499103858    1.7552389671    0.4125456734
9
Dihedral (0,) Energy -155.054535639
C        1.0971527780   -0.0864518979    0.0033869922
C        2.1261883285    0.9341700203   -0.4435794462
O        1.7985827748    1.5542329938   -1.6789624997
H        0.9689441172    1.1974698250   -1.9964499572
H        1.3870520114   -0.5349704548    0.9553662480
H        0.1166646617    0.3785952650    0.1373209541
H        1.0004311476   -0.8913937697   -0.7303577003
H        3.1050901962    0.4553287502   -0.5499014762
H        2.2278987830    1.7170097834    0.3151904431
9
Dihedral (15,) Energy -155.054882805
C        1.1128987242   -0.1073582101   -0.0055060751
C        2.1286257066    0.9262844045   -0.4532624986
O        1.8079260082    1.5166502218   -1.7046477239
H        0.8946883051    1.3197626866   -1.9149013929
H        1.3996689215   -0.5391621093    0.9552339647
H        0.1237633281    0.3438321963    0.1158390140
H        1.0342484015   -0.9194242909   -0.7326158196
H        3.1166624520    0.4690555800   -0.5530356021
H        2.2095241447    1.7143524517    0.3049071214
9
Dihedral (30,) Energy -155.055701676
C        1.1195980305   -0.1215391872   -0.0038818638
C        2.1280781507    0.9132378021   -0.4668593082
O        1.8183942968    1.4548300784   -1.7413492868
H        0.8667544945    1.4425395087   -1.8536118697
H        1.3982639917   -0.5240193599    0.9720652807
H        0.1236455789    0.3211819167    0.0942626707
H        1.0567809220   -0.9500497467   -0.7128797983
H        3.1219620614    0.4689371103   -0.5517594426
H        2.1945264284    1.7188770013    0.2760220579
9
Dihedral (45,) Energy -155.056475306
C        1.1183105968   -0.1413671453   -0.0063479087
C        2.1230954184    0.8949408592   -0.4761072538
O        1.8195797464    1.4119710192   -1.7610380053
H        0.8816083218    1.6092005822   -1.7921362282
H        1.4016399237   -0.5413967715    0.9696290060
H        0.1206567606    0.2969806114    0.0929388462
H        1.0565038204   -0.9687260277   -0.7160542046
H        3.1180535396    0.4543202755   -0.5582486856
H        2.1885531469    1.7080713369    0.2593790215
9
Dihedral (60,) Energy -155.056821837
C        1.1124582197   -0.1640574669   -0.0088567370
C        2.1096411607    0.8805281052   -0.4789716679
O        1.8170429410    1.3729842334   -1.7758230952
H        0.9457175690    1.7729010002   -1.7570636808
H        1.3950576882   -0.5568078495    0.9706474200
H        0.1086711259    0.2614976471    0.0797606416
H        1.0665479362   -0.9932824111   -0.7170513324
H        3.1087383398    0.4474759148   -0.5476020987
H        2.1641264698    1.7027549415    0.2469746348
9
Dihedral (75,) Energy -155.056498314
C        1.1097027507   -0.1865892722   -0.0045480833
C        2.0893003893    0.8712643304   -0.4830622773
O        1.7944284351    1.3327349972   -1.7920007123
H        1.0337620155    1.9138314808   -1.7467748842
H        1.3999050637   -0.5687293360    0.9771860815
H        0.0990534575    0.2224847022    0.0789873865
H        1.0786275752   -1.0198005358   -0.7084454917
H        3.0956512361    0.4527366102   -0.5378841728
H        2.1275714586    1.7060564917    0.2285587865
9
Dihedral (90,) Energy -155.055820862
C        1.0812575930   -0.1957356901   -0.0046788807
C        2.0780411176    0.8438836648   -0.4864613015
O        1.7757671246    1.3090474022   -1.7941224959
H        1.1953929835    2.0673546846   -1.7287906478
H        1.3705215060   -0.5849510945    0.9747611822
H        0.0780326364    0.2292832527    0.0796681525
H        1.0366710850   -1.0271585117   -0.7098849909
H        3.0766004553    0.4044708290   -0.5417296691
H        2.1357254370    1.6777960644    0.2232512259
9
Dihedral (105,) Energy -155.055194111
C        1.0728080033   -0.2160853436   -0.0089354815
C        2.0555057868    0.8391742047   -0.4825025207
O        1.7312760887    1.2993695577   -1.7886108561
H        1.3396279081    2.1694174829   -1.7281638894
H        1.3674829700   -0.6095560043    0.9671982875
H        0.0650316769    0.1965361972    0.0739331058
H        1.0410485224   -1.0428791118   -0.7204071667
H        3.0627811989    0.4159455895   -0.5292673249
H        2.0924426972    1.6720645489    0.2287660410
9
Dihedral (120,) Energy -155.054910537
C        1.0521363097   -0.2204105364   -0.0061049166
C        2.0374539656    0.8305098535   -0.4789147189
O        1.6929217806    1.2817299181   -1.7838201442
H        1.5229828043    2.2218586171   -1.7593194501
H        1.3454033292   -0.6145131032    0.9700619867
H        0.0467682598    0.1972198973    0.0724554270
H        1.0190677277   -1.0483048270   -0.7165260568
H        3.0477616750    0.4097342008   -0.5151942661
H        2.0635066918    1.6661634804    0.2293656390
9
Dihedral (135,) Energy -155.055212522
C        1.0349514600   -0.2236983709   -0.0053925961
C        2.0176457546    0.8301701350   -0.4719027376
O        1.6489656588    1.2802961390   -1.7701358736
H        1.7013508365    2.2343151343   -1.7997790763
H        1.3290776987   -0.6210733652    0.9688687937
H        0.0303274715    0.1947201965    0.0735773437
H        1.0022205523   -1.0492758413   -0.7186405009
H        3.0319215417    0.4152964881   -0.5049938480
H        2.0315422786    1.6632331640    0.2403987545
9
Dihedral (150,) Energy -155.055852307
C        1.0115458066   -0.2184108176   -0.0045801681
C        1.9988679714    0.8337349543   -0.4606622975
O        1.6188306162    1.2865120770   -1.7532981737
H        1.8905883861    2.1980677321   -1.8561673542
H        1.2983534224   -0.6174338447    0.9708570132
H        0.0082058806    0.2035537950    0.0683579073
H        0.9815744126   -1.0430701869   -0.7190791964
H        3.0135711804    0.4168469018   -0.4894637641
H        2.0064621891    1.6641846467    0.2560399680
9
Dihedral (165,) Energy -155.056460999
C        0.9962877362   -0.2102021635    0.0026035739
C        1.9772190726    0.8489704786   -0.4481598128
O        1.5904659945    1.2916308276   -1.7408908747
H        2.0488217128    2.1090026630   -1.9374158245
H        1.2765578117   -0.5996828392    0.9835195824
H       -0.0115214190    0.2028529971    0.0633827262
H        0.9822255605   -1.0389785226   -0.7074756749
H        2.9950981946    0.4379311550   -0.4697994902
H        1.9728416696    1.6824594321    0.2662341935
9
Dihedral (180,) Energy -155.056690383
C        0.9764785128   -0.1912860297    0.0124841408
C        1.9622563097    0.8634966400   -0.4369921778
O        1.5737979556    1.3069999719   -1.7280822192
H        2.1916250729    1.9764203992   -2.0240429373
H        1.2365309635   -0.5603095563    1.0067240805
H       -0.0334355727    0.2201448586    0.0464394270
H        0.9786560782   -1.0329559239   -0.6821145757
H        2.9765297235    0.4435669242   -0.4595268682
H        1.9655572977    1.6979041951    0.2771100761
